<?xml version="1.0" encoding="iso-8859-1"?>
<sspaceex xmlns="http://www-verimag.imag.fr/xml-namespaces/sspaceex" version="0.2" math="SpaceEx">
  <component id="quad">
    <param name="pn" type="real" local="false" d1="1" d2="1" dynamics="any" />
    <param name="pe" type="real" local="false" d1="1" d2="1" dynamics="any" />
    <param name="h" type="real" local="false" d1="1" d2="1" dynamics="any" />
    <param name="u" type="real" local="false" d1="1" d2="1" dynamics="any" />
    <param name="v" type="real" local="false" d1="1" d2="1" dynamics="any" />
    <param name="w" type="real" local="false" d1="1" d2="1" dynamics="any" />
    <param name="q0" type="real" local="false" d1="1" d2="1" dynamics="any" />
    <param name="q1" type="real" local="false" d1="1" d2="1" dynamics="any" />
    <param name="q2" type="real" local="false" d1="1" d2="1" dynamics="any" />
    <param name="q3" type="real" local="false" d1="1" d2="1" dynamics="any" />
    <param name="p" type="real" local="false" d1="1" d2="1" dynamics="any" />
    <param name="q" type="real" local="false" d1="1" d2="1" dynamics="any" />
    <param name="r" type="real" local="false" d1="1" d2="1" dynamics="any" />
    <param name="Jx" type="real" local="false" d1="1" d2="1" dynamics="const" />
    <param name="Jy" type="real" local="false" d1="1" d2="1" dynamics="const" />
    <param name="Jz" type="real" local="false" d1="1" d2="1" dynamics="const" />
    <param name="F" type="real" local="false" d1="1" d2="1" dynamics="const" />
    <param name="m" type="real" local="false" d1="1" d2="1" dynamics="const" />
    <location id="1" name="loc1" x="455.0" y="331.0" width="406.0" height="368.0">
      <flow>pn'==u*(2*q0*q0+2*q1*q1-1) - v*(2*q0*q3-2*q1*q2) + w*(2*q0*q2+2*q1*q3)  &amp;&amp;
pe'==v*(2*q0*q0+2*q2*q2-1) + u*(2*q0*q3+2*q1*q2) - w*(2*q0*q1-2*q2*q3) &amp;&amp;
h'==w*(2*q0*q0+2*q3*q3-1) - u*(2*q0*q2-2*q1*q3) + v*(2*q0*q1+2*q2*q3) &amp;&amp;
u'==r*v - q*w - g*(2*q0*q2-2*q1*q3) &amp;&amp;
v'==p*w - r*u + g*(2*q0*q1+2*q2*q3) &amp;&amp;
w'==q*u - p*v - F/m + g*(2*q0*q0+2*q3*q3-1) &amp;&amp;
q0'==-q1*p/2 - q2*q/2 - q3*r/2 &amp;&amp;
q1'==q0*p/2 - q3*q/2 + q2*r/2 &amp;&amp;
q2'==q3*p/2 + q0*q/2 - q1*r/2 &amp;&amp;
q3'==q1*q/2 - q2*p/2 + q0*r/2 &amp;&amp;
p'==</flow>
    </location>
  </component>
</sspaceex>

